VOLTAGE FOLLOWER

.LIB EVAL.LIB
Xa 3 6 7 4 6 UA741
V1 0 4 15
V2 7 0 15
RL 6 0 10K
Vs 3 0 SIN(0 100M 1K)
.TRAN 500U 5M
.PROBE
.END
